Program Version,EnergyPlus, Version 8.9.0-40101eaafd, YMD=2022.04.10 19:00,
   ** Severe  ** Line: 759 Index: 24 - "Construction:AirBoundary" is not a valid Object Type.
   ** Severe  ** <root>[BuildingSurface:Detailed][Office1..Face0][vertices][4] - Missing required property 'vertex_y_coordinate'.
   ** Severe  ** <root>[BuildingSurface:Detailed][Office1..Face0][vertices][4] - Missing required property 'vertex_z_coordinate'.
   **  Fatal  ** Errors occurred on processing input file. Preceding condition(s) cause termination.
   ...Summary of Errors that led to program termination:
   ..... Reference severe error count=3
   ..... Last severe error=<root>[BuildingSurface:Detailed][Office1..Face0][vertices][4] - Missing required property 'vertex_z_coordinate'.
   ************* Warning:  Node connection errors not checked - most system input has not been read (see previous warning).
   ************* Fatal error -- final processing.  Program exited before simulations began.  See previous error messages.
   ************* EnergyPlus Warmup Error Summary. During Warmup: 0 Warning; 0 Severe Errors.
   ************* EnergyPlus Sizing Error Summary. During Sizing: 0 Warning; 0 Severe Errors.
   ************* EnergyPlus Terminated--Fatal Error Detected. 0 Warning; 3 Severe Errors; Elapsed Time=00hr 00min  0.27sec
